Version 4
SHEET 1 1928 3252
WIRE 352 304 256 304
WIRE 416 304 352 304
WIRE 656 304 592 304
WIRE 720 304 656 304
WIRE 752 304 720 304
WIRE 656 336 656 304
WIRE 752 336 752 304
WIRE 352 352 352 304
WIRE 256 448 256 384
WIRE 352 448 352 416
WIRE 528 464 528 368
WIRE 656 464 656 400
WIRE 752 464 752 416
FLAG 528 464 0
FLAG 752 464 0
FLAG 256 448 0
FLAG 352 448 0
FLAG 656 464 0
FLAG 720 304 out
SYMBOL cap 336 352 R0
SYMATTR InstName C1
SYMATTR Value 0.33”
SYMBOL cap 640 336 R0
SYMATTR InstName C2
SYMATTR Value 0.1”
SYMBOL voltage 256 288 R0
WINDOW 123 0 0 Left 2
WINDOW 39 0 0 Left 2
WINDOW 0 2 -12 Left 2
SYMATTR InstName V1
SYMATTR Value 13
SYMBOL LM7805 496 272 R0
SYMATTR InstName U1
SYMATTR Prefix X
SYMATTR Value LM7805C
SYMBOL current 752 336 R0
SYMATTR InstName I1
SYMATTR Value 0
TEXT -128 256 Left 2 ;.tran 10m
TEXT -128 296 Left 2 !.IC V(out) = 4
TEXT -128 136 Left 2 !.lib "7805.txt"
TEXT -128 96 Left 2 !.lib "78xx.txt"
TEXT -128 176 Left 2 !.lib "7812.txt"
TEXT -128 216 Left 2 !.lib "317.txt"
TEXT -112 360 Left 2 !.dc I1 0 0.5
