Version 4
SHEET 1 1928 3252
WIRE -192 144 -352 144
WIRE -64 144 -192 144
WIRE 80 144 32 144
WIRE 176 144 80 144
WIRE 240 144 176 144
WIRE 432 144 320 144
WIRE 544 144 432 144
WIRE 624 144 544 144
WIRE -192 160 -192 144
WIRE 176 160 176 144
WIRE 432 160 432 144
WIRE 624 176 624 144
WIRE 176 256 176 224
WIRE 432 256 432 224
WIRE -192 288 -192 240
WIRE -16 288 -16 208
WIRE -16 288 -192 288
WIRE 80 288 80 144
WIRE 624 304 624 256
WIRE -352 384 -352 144
WIRE -16 432 -16 288
WIRE 144 432 48 432
WIRE 192 432 144 432
WIRE 416 432 368 432
WIRE 544 432 544 144
WIRE 544 432 496 432
WIRE 144 480 144 432
WIRE -352 528 -352 464
WIRE 80 592 80 368
WIRE 144 592 144 544
WIRE 144 592 80 592
WIRE 304 592 304 496
WIRE 304 592 144 592
WIRE 80 624 80 592
WIRE 80 752 80 704
FLAG 624 304 0
FLAG -352 528 0
FLAG 80 752 0
FLAG 176 256 0
FLAG 432 256 0
SYMBOL res 608 160 R0
SYMATTR InstName R1
SYMATTR Value 10
SYMBOL cap 128 480 R0
SYMATTR InstName C1
SYMATTR Value 0.01µ
SYMBOL voltage -352 368 R0
WINDOW 123 0 0 Left 2
WINDOW 39 0 0 Left 2
SYMATTR InstName V1
SYMATTR Value 13
SYMBOL LM7805 272 400 R0
SYMATTR InstName U1
SYMATTR Prefix X
SYMATTR Value LM7805C
SYMBOL pnp 32 208 M270
SYMATTR InstName Q1
SYMATTR Value D45H11
SYMBOL res -208 144 R0
SYMATTR InstName R2
SYMATTR Value 4.7
SYMBOL schottky 192 224 R180
WINDOW 0 -48 18 Left 2
WINDOW 3 -99 -11 Left 2
SYMATTR InstName D1
SYMATTR Value 1N5817
SYMATTR Description Diode
SYMATTR Type diode
SYMBOL ind 224 160 R270
WINDOW 0 66 65 VTop 2
WINDOW 3 65 68 VBottom 2
SYMATTR InstName L1
SYMATTR Value 100m
SYMBOL cap 416 160 R0
SYMATTR InstName C3
SYMATTR Value 100µ
SYMATTR SpiceLine Rser=100m
SYMBOL zener 48 416 R90
WINDOW 0 0 32 VBottom 2
WINDOW 3 33 74 VTop 2
SYMATTR InstName D2
SYMATTR Value 1N750
SYMATTR Description Diode
SYMATTR Type diode
SYMBOL res 64 608 R0
SYMATTR InstName R3
SYMATTR Value 0.5
SYMBOL res 64 272 R0
SYMATTR InstName R4
SYMATTR Value 470
SYMBOL res 400 416 M90
WINDOW 0 0 56 VBottom 2
WINDOW 3 32 56 VTop 2
SYMATTR InstName R5
SYMATTR Value 0.01
TEXT 752 24 Left 2 !.tran 20m
TEXT 1040 232 Left 2 !..SUBCKT x_LM78XX Input Output Ground PARAMS:\n+ Av_feedback=1665, R1_Value=1020\n*\n* SERIES 3-TERMINAL POSITIVE REGULATOR\n*\n* Note: This regulator is based on the LM78XX series of\n* regulators (also the LM140 and LM340). The model\n* will cause some current to flow to Node 0 which\n* is not part of the actual voltage regulator circuit.\n*\n* Band-gap voltage source:\n*\n* The source is off when Vin<3V and fully on when Vin>3.7V.\n* Line regulation and ripple rejection) are set with\n* Rreg= 0.5 * dVin/dVbg. The temperature dependence of this\n* circuit is a quadratic fit to the following points:\n*\n* T Vbg(T)/Vbg(nom)\n* --- ---------------\n* 0 .999\n* 37.5 1\n* 125 .990\n*\n* The temperature coefficient of Rbg is set to 2 * the band gap\n* temperature coefficient. Tnom is assumed to be 27 deg. C and\n* Vnom is 3.7V\n*\nVbg 100 0 DC 7.4V\nSbg (100,101),(Input,Ground) Sbg1\nRbg 101 0 1 TC=1.612E-5,-2.255E-6\nEbg (102,0),(Input,Ground) 1\nRreg 102 101 7k\n..MODEL Sbg1 VSWITCH (Ron=1 Roff=1MEG Von=3.7 Voff=3)\n*\n* Feedback stage\n*\n* Diodes D1,D2 limit the excursion of the amplifier\n* outputs to being near the rails. Rfb, Cfb Set the\n* corner frequency for roll-off of ripple rejection.\n \n*\n* The opamp gain is given by: Av = (Fores/Freg) * (Vout/Vbg)\n* where Fores = output impedance corner frequency\n* with Cl=0 (typical value about 1MHz)\n* Freg = corner frequency in ripple rejection\n* (typical value about 600 Hz)\n* Vout = regulator output voltage (5,12,15V)\n* Vbg = bandgap voltage (3.7V)\n*\n* Note: Av is constant for all output voltages, but the\n* feedback factor changes. If Av=2250, then the\n* Av*Feedback factor is as given below:\n*\n* Vout Av*Feedback factor\n* ---- ------------------\n* 5 1665\n* 12 694\n* 15 550\n*\nRfb 9 8 1MEG\nCfb 8 Ground 265PF\nEopamp 105 0 VALUE={2250*v(101,0)+Av_feedback*v(Ground,8)}\nVgainf 200 0 {Av_feedback}\nRgainf 200 0 1\n*Eopamp 105 0 POLY(3),(101,0),(Ground,8),(200,0) 0 2250 0 0 0 0 0 0 1\nRo 105 106 1k\nD1 106 108 Dlim\nD2 107 106 Dlim\n..MODEL Dlim D (Vj=0.7)\nVl1 102 108 DC 1\nVl2 107 0 DC 1\n*\n* Quiescent current modelling\n*\n* Quiescent current is set by Gq, which draws a current\n* proportional to the voltage drop across the regulator and\n* R1 (temperature coefficient .1%/deg C). R1 must change\n* with output voltage as follows: R1 = R1(5v) * Vout/5v.\n*\nGq (Input,Ground),(Input,9) 2.0E-5\nR1 9 Ground {R1_Value} TC=0.001\n*\n* Output Stage\n*\n* Rout is used to set both the low frequency output impedence\n* and the load regulation.\n*\nQ1 Input 5 6 Npn1\nQ2 Input 6 7 Npn1 10\n..MODEL Npn1 NPN (Bf=50 Is=1E-14)\n* Efb Input 4 VALUE={v(Input,Ground)+v(0,106)}\nEfb Input 4 POLY(2),(Input,Ground),(0,106) 0 1 1\nRb 4 5 1k TC=0.003\nRe 6 7 2k\nRsc 7 9 0.275 TC=1.136E-3,-7.806E-6\nRout 9 Output 0.008\n*\n* Current Limit\n*\nRbcl 7 55 290\nQcl 5 55 9 Npn1\nRcldz 56 55 10k\nDz1 56 Input Dz\n..MODEL Dz D (Is=0.05p Rs=3 Bv=7.11 Ibv=0.05u)\n..ENDS\n*$
TEXT 1040 -32 Left 2 !.SUBCKT LM7805C Input Ground Output\nx1 Input Output Ground x_LM78XX PARAMS:\n+     Av_feedback=1665, R1_Value=1020\n.ENDS
