Version 4
SHEET 1 1480 680
WIRE 656 -80 512 -80
WIRE 752 -80 656 -80
WIRE 848 -80 752 -80
WIRE 512 -32 512 -80
WIRE 656 -32 656 -80
WIRE 848 -32 848 -80
WIRE 880 -32 848 -32
WIRE 1056 -32 880 -32
WIRE 1216 -32 1152 -32
WIRE 1216 48 1216 -32
WIRE 208 64 112 64
WIRE 336 64 288 64
WIRE 880 64 880 -32
WIRE 928 64 880 64
WIRE 1104 64 1104 32
WIRE 1104 64 1008 64
WIRE 112 96 112 64
WIRE 336 96 336 64
WIRE 512 96 512 32
WIRE 512 96 464 96
WIRE 752 112 752 -80
WIRE 1104 128 1104 64
WIRE 656 176 656 32
WIRE 656 176 464 176
WIRE 112 208 112 176
WIRE 240 208 112 208
WIRE 336 208 336 176
WIRE 336 208 240 208
WIRE 512 208 512 96
WIRE 656 208 656 176
WIRE 240 224 240 208
WIRE 752 224 752 176
WIRE 1104 224 1104 192
WIRE 1104 224 752 224
WIRE 1216 224 1216 128
WIRE 1216 224 1104 224
WIRE 752 256 752 224
WIRE 512 288 512 272
WIRE 592 288 512 288
WIRE 656 288 656 272
WIRE 656 288 592 288
WIRE 592 304 592 288
WIRE 848 416 848 -32
WIRE 912 416 848 416
WIRE 1152 416 1088 416
WIRE 1216 416 1152 416
WIRE 1248 416 1216 416
WIRE 1152 448 1152 416
WIRE 1248 448 1248 416
WIRE 848 464 848 416
WIRE 848 560 848 528
WIRE 1024 576 1024 480
WIRE 1152 576 1152 512
WIRE 1248 576 1248 528
FLAG 592 304 0
FLAG 752 256 0
FLAG 240 224 0
FLAG 1024 576 0
FLAG 1248 576 0
FLAG 848 560 0
FLAG 1152 576 0
FLAG 1216 416 out
SYMBOL voltage 112 80 R0
SYMATTR InstName V1
SYMATTR Value SINE(0 230 50)
SYMBOL res 304 48 R90
WINDOW 0 0 56 VBottom 2
WINDOW 3 32 56 VTop 2
SYMATTR InstName R1
SYMATTR Value 0.01
SYMBOL ind2 320 80 R0
WINDOW 3 26 102 Left 2
SYMATTR Value 153m
SYMATTR InstName L1
SYMATTR Type ind
SYMBOL ind2 480 192 R180
WINDOW 0 36 80 Left 2
WINDOW 3 36 40 Left 2
SYMATTR InstName L2
SYMATTR Value 1m
SYMATTR Type ind
SYMBOL diode 528 32 R180
WINDOW 0 24 64 Left 2
WINDOW 3 24 0 Left 2
SYMATTR InstName D1
SYMATTR Value D1N4001
SYMBOL diode 528 272 R180
WINDOW 0 24 64 Left 2
WINDOW 3 24 0 Left 2
SYMATTR InstName D2
SYMATTR Value D1N4001
SYMBOL diode 672 32 R180
WINDOW 0 24 64 Left 2
WINDOW 3 24 0 Left 2
SYMATTR InstName D3
SYMATTR Value D1N4001
SYMBOL diode 672 272 R180
WINDOW 0 24 64 Left 2
WINDOW 3 24 0 Left 2
SYMATTR InstName D4
SYMATTR Value D1N4001
SYMBOL cap 736 112 R0
SYMATTR InstName C1
SYMATTR Value 2300µ
SYMBOL res 1024 48 R90
WINDOW 0 0 56 VBottom 2
WINDOW 3 32 56 VTop 2
SYMATTR InstName R2
SYMATTR Value 888
SYMBOL npn2 1056 32 R270
SYMATTR InstName Q1
SYMATTR Value QBD135-16 NPN
SYMBOL zener 1120 192 R180
WINDOW 0 24 64 Left 2
WINDOW 3 24 0 Left 2
SYMATTR InstName D5
SYMATTR Value BZX84-C13
SYMBOL res 1200 32 R0
SYMATTR InstName R3
SYMATTR Value 60
SYMBOL cap 832 464 R0
SYMATTR InstName C2
SYMATTR Value 0.33µ
SYMBOL cap 1136 448 R0
SYMATTR InstName C3
SYMATTR Value 0.1µ
SYMBOL LM7805 992 384 R0
SYMATTR InstName U1
SYMATTR Prefix X
SYMATTR Value LM7805C
SYMBOL res 1232 432 R0
SYMATTR InstName R4
SYMATTR Value 50
TEXT 328 8 Left 2 !K L1 L2 0.999
TEXT -304 328 Left 2 !.tran 100m
TEXT -304 -280 Left 2 !.MODEL D1N4001 D(Is=14.11n N=1.984 Rs=33.88m Ikf=94.81 Xti=3 Eg=1.11 Cjo=25.89p M=.441 Vj=.2245 Fc=.5 Bv=75 Ibv=10u Tt=5.7u)
TEXT -296 -624 Left 2 !.MODEL BZX84-C13 D\n+ IS=110.88E-18\n+ N=.92657\n+ RS=.85899\n+ IKF=149.75\n+ CJO=44.598E-12\n+ M=.32761\n+ VJ=.62204\n+ ISR=43.951E-12\n+ BV=13.118\n+ IBV=.56589\n+ TT=825.22E-9
TEXT 16 -1384 Left 2 !.MODEL QBD135-16 NPN( \n+     IS = 4.815E-14 \n+     NF = 0.9897 \n+     ISE = 1.389E-14 \n+     NE = 1.6 \n+     BF = 124.2 \n+     IKF = 1.6 \n+     VAF = 222 \n+     NR = 0.9895 \n+     ISC = 1.295E-13 \n+     NC = 1.183 \n+     BR = 13.26 \n+     IKR = 0.29 \n+     VAR = 81.4 \n+     RB = 0.5 \n+     IRB = 1E-06 \n+     RBM = 0.5 \n+     RE = 0.165 \n+     RC = 0.096 \n+     XTB = 0 \n+     EG = 1.11 \n+     XTI = 3 \n+     CJE = 1.243E-10 \n+     VJE = 0.7313 \n+     MJE = 0.3476 \n+     TF = 6.478E-10 \n+     XTF = 29 \n+     VTF = 2.648 \n+     ITF = 3.35 \n+     PTF = 0 \n+     CJC = 3.04E-11 \n+     VJC = 0.5642 \n+     MJC = 0.4371 \n+     XCJC = 0.15 \n+     TR = 1E-32 \n+     CJS = 0 \n+     VJS = 0.75 \n+     MJS = 0.333 \n+     FC = 0.9359 )
TEXT -304 -32 Left 2 ;.tran 10m
TEXT -304 8 Left 2 !.IC V(out) = 4
TEXT -304 -152 Left 2 !.lib "7805.txt"
TEXT -304 -192 Left 2 !.lib "78xx.txt"
TEXT -304 -112 Left 2 !.lib "7812.txt"
TEXT -304 -72 Left 2 !.lib "317.txt"
